
Note: Compatibility modes selected: hs a


Circuit: ** sch_path: /home/alienfalcon/projects/skywater/open_dvs_py312/open_dvs/git_dvs/nic2025_opendvs/analog/runs/run_2026-05-06_18-53-04/parameters/op_sweep_code/run_003/tb_biasbranchnmasterx1_op.sch

option SCALE: Scale is set to 1e-06 for instance and model parameters
option SCALE: Scale is set to 1e-06 for instance and model parameters
option SCALE: Scale is set to 1e-06 for instance and model parameters
option SCALE: Scale is set to 1e-06 for instance and model parameters
